data/raw/rawx/IEEE14.raw
/@!IC,SBASE,REV,XFRRAT,NXFRAT,BASFRQ
0,  100.00, 36,     0,     1, 60.00     / PSS(R)E-36.1    WED, JUL 01 2026   9:49
 08/19/93 UW ARCHIVE           100.0  1962 W
 IEEE 14 BUS TEST CASE
GENERAL, THRSHZ=0.0001, PQBRAK=0.7, BLOWUP=5.0, MaxIsolLvls=4, CAMaxReptSln=20, ChkDupCntLbl=0
GAUSS, ITMX=100, ACCP=1.6, ACCQ=1.6, ACCM=1.0, TOL=0.0001
NEWTON, ITMXN=20, ACCN=1.0, TOLN=0.1, VCTOLQ=0.1, VCTOLV=0.00001, DVLIM=0.99, NDVFCT=0.99
ADJUST, ADJTHR=0.005, ACCTAP=1.0, TAPLIM=0.05, SWVBND=100.0, MXTPSS=99, MXSWIM=10
TYSL, ITMXTY=20, ACCTY=1.0, TOLTY=0.00001
RATING, 1, "RATE1 ", "RATING SET 1                    "
RATING, 2, "RATE2 ", "RATING SET 2                    "
RATING, 3, "RATE3 ", "RATING SET 3                    "
RATING, 4, "RATE4 ", "RATING SET 4                    "
RATING, 5, "RATE5 ", "RATING SET 5                    "
RATING, 6, "RATE6 ", "RATING SET 6                    "
RATING, 7, "RATE7 ", "RATING SET 7                    "
RATING, 8, "RATE8 ", "RATING SET 8                    "
RATING, 9, "RATE9 ", "RATING SET 9                    "
RATING,10, "RATE10", "RATING SET 10                   "
RATING,11, "RATE11", "RATING SET 11                   "
RATING,12, "RATE12", "RATING SET 12                   "
SWDRATNAM,  1, "RATE1 ", 0, "MVA", "SWD RATING SET 1                "
SWDRATNAM,  2, "RATE2 ", 0, "MVA", "SWD RATING SET 2                "
SWDRATNAM,  3, "RATE3 ", 0, "MVA", "SWD RATING SET 3                "
SWDRATNAM,  4, "RATE4 ", 0, "MVA", "SWD RATING SET 4                "
SWDRATNAM,  5, "RATE5 ", 0, "MVA", "SWD RATING SET 5                "
SWDRATNAM,  6, "RATE6 ", 0, "MVA", "SWD RATING SET 6                "
SWDRATNAM,  7, "RATE7 ", 0, "MVA", "SWD RATING SET 7                "
SWDRATNAM,  8, "RATE8 ", 0, "MVA", "SWD RATING SET 8                "
SWDRATNAM,  9, "RATE9 ", 0, "MVA", "SWD RATING SET 9                "
SWDRATNAM, 10, "RATE10", 0, "MVA", "SWD RATING SET 10               "
SWDRATNAM, 11, "RATE11", 0, "MVA", "SWD RATING SET 11               "
SWDRATNAM, 12, "RATE12", 0, "MVA", "SWD RATING SET 12               "
0 / END OF SYSTEM-WIDE DATA, BEGIN BUS DATA
@!   I,'NAME        ', BASKV, IDE,AREA,ZONE,OWNER, VM,        VA,    NVHI,   NVLO,   EVHI,   EVLO
     1,'BUS1        ',  69.0000,3,   1,   1,   1,1.03000,   0.0000,1.05000,0.95000,1.10000,0.90000
     2,'BUS2        ',  69.0000,2,   2,   1,   1,1.00703,  -5.4252,1.05000,0.95000,1.10000,0.90000
     3,'BUS3        ',  69.0000,2,   1,   1,   1,0.98642, -14.0964,1.05000,0.95000,1.10000,0.90000
     4,'BUS4        ',  69.0000,1,   1,   1,   1,0.98296, -11.4766,1.05000,0.95000,1.10000,0.90000
     5,'BUS5        ',  69.0000,1,   1,   1,   1,0.98726,  -9.8326,1.05000,0.95000,1.10000,0.90000
     6,'BUS6        ', 138.0000,2,   2,   2,   2,0.99268, -16.9240,1.05000,0.95000,1.10000,0.90000
     7,'BUS7        ', 138.0000,1,   2,   2,   2,0.99524, -15.3445,1.05000,0.95000,1.10000,0.90000
     8,'BUS8        ',  69.0000,2,   2,   2,   2,1.03605, -15.3445,1.05000,0.95000,1.10000,0.90000
     9,'BUS9        ', 138.0000,1,   2,   2,   2,0.97802, -17.3886,1.05000,0.95000,1.10000,0.90000
    10,'BUS10       ', 138.0000,1,   2,   2,   2,0.97265, -17.6390,1.05000,0.95000,1.10000,0.90000
    11,'BUS11       ', 138.0000,1,   2,   2,   2,0.97886, -17.4318,1.05000,0.95000,1.10000,0.90000
    12,'BUS12       ', 138.0000,1,   2,   2,   2,0.97777, -17.9818,1.05000,0.95000,1.10000,0.90000
    13,'BUS13       ', 138.0000,1,   2,   2,   2,0.97325, -18.1640,1.05000,0.95000,1.10000,0.90000
    14,'BUS14       ', 138.0000,1,   2,   2,   2,0.96390, -19.6821,1.05000,0.95000,1.10000,0.90000
0 / END OF BUS DATA, BEGIN LOAD DATA
@!   I,'ID',STAT,AREA,ZONE,      PL,        QL,        IP,        IQ,        YP,        YQ, OWNER,SCALE,INTRPT,  DGENP,     DGENQ,DGENF,'  LOAD TYPE ',               'N A M E'
     2,'1 ',   1,   1,   1,    21.700,    12.700,     0.000,     0.000,     0.000,     0.000,   1,    1,  0,     0.000,     0.000,    0,'            ','                                        '
     3,'1 ',   1,   1,   1,    94.200,    19.000,     0.000,     0.000,     0.000,     0.000,   1,    1,  0,     0.000,     0.000,    0,'            ','                                        '
     4,'1 ',   1,   1,   1,    47.800,    -3.900,     0.000,     0.000,     0.000,     0.000,   1,    1,  0,     0.000,     0.000,    0,'            ','                                        '
     5,'1 ',   1,   1,   1,     7.600,     1.600,     0.000,     0.000,     0.000,     0.000,   1,    1,  0,     0.000,     0.000,    0,'            ','                                        '
     6,'1 ',   1,   2,   2,    15.000,     7.500,     0.000,     0.000,     0.000,     0.000,   2,    1,  0,     0.000,     0.000,    0,'            ','                                        '
     9,'1 ',   1,   2,   2,    29.500,    16.600,     0.000,     0.000,     0.000,     0.000,   2,    1,  0,     0.000,     0.000,    0,'            ','                                        '
    10,'1 ',   1,   2,   2,     9.000,     5.800,     0.000,     0.000,     0.000,     0.000,   2,    1,  0,     0.000,     0.000,    0,'            ','                                        '
    11,'1 ',   1,   2,   2,     3.500,     1.800,     0.000,     0.000,     0.000,     0.000,   2,    1,  0,     0.000,     0.000,    0,'            ','                                        '
    12,'1 ',   1,   2,   2,     6.100,     1.600,     0.000,     0.000,     0.000,     0.000,   2,    1,  0,     0.000,     0.000,    0,'            ','                                        '
    13,'1 ',   1,   2,   2,    13.500,     5.800,     0.000,     0.000,     0.000,     0.000,   2,    1,  0,     0.000,     0.000,    0,'            ','                                        '
    14,'1 ',   1,   2,   2,    20.000,     7.000,     0.000,     0.000,     0.000,     0.000,   2,    1,  0,     0.000,     0.000,    0,'            ','                                        '
0 / END OF LOAD DATA, BEGIN FIXED SHUNT DATA
@!   I,'ID',STATUS,  GL,        BL,                'N A M E'
0 / END OF FIXED SHUNT DATA, BEGIN VOLTAGE DROOP CONTROL DATA
@!'NAME',                              STATUS,REGBUS,       QDB,      QMIN,      QMAX, VDBLOW,VDBHIGH,  VLOW,   VHIGH
0 / END OF VOLTAGE DROOP CONTROL DATA, BEGIN GENERATOR DATA
@!   I,'ID',      PG,        QG,        QT,        QB,     VS,    IREG,NREG,     MBASE,     ZR,         ZX,         RT,         XT,     GTAP,STAT, RMPCT,      PT,        PB,BASLOD,O1,    F1,  O2,    F2,  O3,    F3,  O4,    F4,WMOD, WPF          'DROOPNAME'                                      'N A M E'
     1,'1 ',   243.419,    -4.082,   100.000,   -50.000,1.03000,     1,   0,   320.000, 0.00000E+0, 2.30000E-1, 0.00000E+0, 0.00000E+0,1.00000,1,  100.0,   300.000,    50.000, 0,   1,1.0000
     2,'1 ',    40.000,    20.000,    20.000,   -40.000,1.03000,     2,   0,    55.000, 0.00000E+0, 2.80000E-1, 0.00000E+0, 0.00000E+0,1.00000,1,  100.0,    50.000,    10.000, 0,   1,1.0000
     3,'1 ',     0.000,    40.000,    40.000,   -10.000,1.01000,     3,   0,    50.000, 0.00000E+0, 3.40000E-1, 0.00000E+0, 0.00000E+0,1.00000,1,  100.0,    50.000,    10.000, 0,   1,1.0000
     6,'1 ',     0.000,    24.000,    24.000,    -6.000,1.30000,     6,   0,    30.000, 0.00000E+0, 2.80000E-1, 0.00000E+0, 0.00000E+0,1.00000,1,  100.0,    50.000,    10.000, 0,   1,1.0000
     8,'1 ',     0.000,    24.000,    24.000,    -6.000,1.09000,     8,   0,    30.000, 0.00000E+0, 3.40000E-1, 0.00000E+0, 0.00000E+0,1.00000,1,  100.0,    50.000,    10.000, 0,   1,1.0000
0 / END OF GENERATOR DATA, BEGIN SWITCHING DEVICE RATING SET DATA
@!                'N A M E'                 , 'DESCRIPTION',   RATE1,   RATE2,   RATE3,   RATE4,   RATE5,   RATE6,   RATE7,   RATE8,   RATE9,  RATE10,  RATE11,  RATE12
0 / END OF SWITCHING DEVICE RATING SET DATA, BEGIN BRANCH DATA
@!   I,     J,'CKT',      R,           X,       B,                   'N A M E'                 ,  RATE1,  RATE2,  RATE3,  RATE4,  RATE5,  RATE6,  RATE7,  RATE8,  RATE9, RATE10, RATE11, RATE12,   GI,      BI,      GJ,      BJ,STAT,MET, LEN,  O1,  F1,    O2,  F2,    O3,  F3,    O4,  F4
     1,     2,'1 ', 1.93800E-02, 5.91700E-02,0.05280,'                                        ',   0.00,   0.00,   0.00,   0.00,   0.00,   0.00,   0.00,   0.00,   0.00,   0.00,   0.00,   0.00, 0.00000, 0.00000, 0.00000, 0.00000, 1, 0, 1,  0.00,   1,1.0000
     1,     5,'1 ', 5.40300E-02, 2.23040E-01,0.04920,'                                        ',   0.00,   0.00,   0.00,   0.00,   0.00,   0.00,   0.00,   0.00,   0.00,   0.00,   0.00,   0.00, 0.00000, 0.00000, 0.00000, 0.00000, 1, 0, 1,  0.00,   1,1.0000
     2,     3,'1 ', 4.69900E-02, 1.97970E-01,0.04380,'                                        ',   0.00,   0.00,   0.00,   0.00,   0.00,   0.00,   0.00,   0.00,   0.00,   0.00,   0.00,   0.00, 0.00000, 0.00000, 0.00000, 0.00000, 1, 0, 1,  0.00,   1,1.0000
     2,     4,'1 ', 5.81100E-02, 1.76320E-01,0.03400,'                                        ',   0.00,   0.00,   0.00,   0.00,   0.00,   0.00,   0.00,   0.00,   0.00,   0.00,   0.00,   0.00, 0.00000, 0.00000, 0.00000, 0.00000, 1, 0, 1,  0.00,   1,1.0000
     2,     5,'1 ', 5.69500E-02, 1.73880E-01,0.03460,'                                        ',   0.00,   0.00,   0.00,   0.00,   0.00,   0.00,   0.00,   0.00,   0.00,   0.00,   0.00,   0.00, 0.00000, 0.00000, 0.00000, 0.00000, 1, 0, 1,  0.00,   1,1.0000
     3,     4,'1 ', 6.70100E-02, 1.71030E-01,0.01280,'                                        ',   0.00,   0.00,   0.00,   0.00,   0.00,   0.00,   0.00,   0.00,   0.00,   0.00,   0.00,   0.00, 0.00000, 0.00000, 0.00000, 0.00000, 1, 0, 1,  0.00,   1,1.0000
     4,     5,'1 ', 1.33500E-02, 4.21100E-02,0.00000,'                                        ',   0.00,   0.00,   0.00,   0.00,   0.00,   0.00,   0.00,   0.00,   0.00,   0.00,   0.00,   0.00, 0.00000, 0.00000, 0.00000, 0.00000, 1, 0, 1,  0.00,   1,1.0000
     4,     7,'1 ',-0.00000E+00, 2.09120E-01,0.00000,'                                        ',   0.00,   0.00,   0.00,   0.00,   0.00,   0.00,   0.00,   0.00,   0.00,   0.00,   0.00,   0.00, 0.00000, 0.00000, 0.00000, 0.00000, 1, 0, 1,  0.00,   1,1.0000
     4,     9,'1 ',-0.00000E+00, 5.56180E-01,0.00000,'                                        ',   0.00,   0.00,   0.00,   0.00,   0.00,   0.00,   0.00,   0.00,   0.00,   0.00,   0.00,   0.00, 0.00000, 0.00000, 0.00000, 0.00000, 1, 0, 1,  0.00,   1,1.0000
     5,     6,'1 ',-0.00000E+00, 2.52020E-01,0.00000,'                                        ',   0.00,   0.00,   0.00,   0.00,   0.00,   0.00,   0.00,   0.00,   0.00,   0.00,   0.00,   0.00, 0.00000, 0.00000, 0.00000, 0.00000, 1, 0, 1,  0.00,   1,1.0000
     6,    11,'1 ', 9.49800E-02, 1.98900E-01,0.00000,'                                        ',   0.00,   0.00,   0.00,   0.00,   0.00,   0.00,   0.00,   0.00,   0.00,   0.00,   0.00,   0.00, 0.00000, 0.00000, 0.00000, 0.00000, 1, 0, 1,  0.00,   1,1.0000
     6,    12,'1 ', 1.22910E-01, 2.55810E-01,0.00000,'                                        ',   0.00,   0.00,   0.00,   0.00,   0.00,   0.00,   0.00,   0.00,   0.00,   0.00,   0.00,   0.00, 0.00000, 0.00000, 0.00000, 0.00000, 1, 0, 1,  0.00,   1,1.0000
     6,    13,'1 ', 6.61500E-02, 1.30270E-01,0.00000,'                                        ',   0.00,   0.00,   0.00,   0.00,   0.00,   0.00,   0.00,   0.00,   0.00,   0.00,   0.00,   0.00, 0.00000, 0.00000, 0.00000, 0.00000, 1, 0, 1,  0.00,   1,1.0000
     7,     8,'1 ',-0.00000E+00, 1.76150E-01,0.00000,'                                        ',   0.00,   0.00,   0.00,   0.00,   0.00,   0.00,   0.00,   0.00,   0.00,   0.00,   0.00,   0.00, 0.00000, 0.00000, 0.00000, 0.00000, 1, 0, 1,  0.00,   1,1.0000
     7,     9,'1 ',-0.00000E+00, 1.10010E-01,0.00000,'                                        ',   0.00,   0.00,   0.00,   0.00,   0.00,   0.00,   0.00,   0.00,   0.00,   0.00,   0.00,   0.00, 0.00000, 0.00000, 0.00000, 0.00000, 1, 0, 1,  0.00,   1,1.0000
     9,    10,'1 ', 3.18100E-02, 8.45000E-02,0.00000,'                                        ',   0.00,   0.00,   0.00,   0.00,   0.00,   0.00,   0.00,   0.00,   0.00,   0.00,   0.00,   0.00, 0.00000, 0.00000, 0.00000, 0.00000, 1, 0, 1,  0.00,   1,1.0000
     9,    14,'1 ', 1.27110E-01, 2.70380E-01,0.00000,'                                        ',   0.00,   0.00,   0.00,   0.00,   0.00,   0.00,   0.00,   0.00,   0.00,   0.00,   0.00,   0.00, 0.00000, 0.00000, 0.00000, 0.00000, 1, 0, 1,  0.00,   1,1.0000
    10,    11,'1 ', 8.20500E-02, 1.92070E-01,0.00000,'                                        ',   0.00,   0.00,   0.00,   0.00,   0.00,   0.00,   0.00,   0.00,   0.00,   0.00,   0.00,   0.00, 0.00000, 0.00000, 0.00000, 0.00000, 1, 0, 1,  0.00,   1,1.0000
    12,    13,'1 ', 2.20920E-01, 1.99880E-01,0.00000,'                                        ',   0.00,   0.00,   0.00,   0.00,   0.00,   0.00,   0.00,   0.00,   0.00,   0.00,   0.00,   0.00, 0.00000, 0.00000, 0.00000, 0.00000, 1, 0, 1,  0.00,   1,1.0000
    13,    14,'1 ', 1.70930E-01, 3.48020E-01,0.00000,'                                        ',   0.00,   0.00,   0.00,   0.00,   0.00,   0.00,   0.00,   0.00,   0.00,   0.00,   0.00,   0.00, 0.00000, 0.00000, 0.00000, 0.00000, 1, 0, 1,  0.00,   1,1.0000
0 / END OF BRANCH DATA, BEGIN SYSTEM SWITCHING DEVICE DATA
@!   I,     J,'CKT',          X, 'RATING SET NAME'                       , STAT,NSTAT,  MET,STYPE,'NAME'
0 / END OF SYSTEM SWITCHING DEVICE DATA, BEGIN TRANSFORMER DATA
@!   I,     J,     K,'CKT',CW,CZ,CM,     MAG1,        MAG2,NMETR,               'N A M E',               STAT,O1,  F1,    O2,  F2,    O3,  F3,    O4,  F4,     'VECGRP', ZCOD
@!   R1-2,       X1-2, SBASE1-2,     R2-3,       X2-3, SBASE2-3,     R3-1,       X3-1, SBASE3-1, VMSTAR,   ANSTAR
@!WINDV1, NOMV1,   ANG1, RATE1-1, RATE1-2, RATE1-3, RATE1-4, RATE1-5, RATE1-6, RATE1-7, RATE1-8, RATE1-9,RATE1-10,RATE1-11,RATE1-12,COD1,CONT1,NOD1,  RMA1,   RMI1,   VMA1,   VMI1, NTP1,TAB1, CR1,    CX1,  CNXA1
@!WINDV2, NOMV2,   ANG2, RATE2-1, RATE2-2, RATE2-3, RATE2-4, RATE2-5, RATE2-6, RATE2-7, RATE2-8, RATE2-9,RATE2-10,RATE2-11,RATE2-12,COD2,CONT2,NOD2,  RMA2,   RMI2,   VMA2,   VMI2, NTP2,TAB2, CR2,    CX2,  CNXA2
@!WINDV3, NOMV3,   ANG3, RATE3-1, RATE3-2, RATE3-3, RATE3-4, RATE3-5, RATE3-6, RATE3-7, RATE3-8, RATE3-9,RATE3-10,RATE3-11,RATE3-12,COD3,CONT3,NOD3,  RMA3,   RMI3,   VMA3,   VMI3, NTP3,TAB3, CR3,    CX3,  CNXA3
0 / END OF TRANSFORMER DATA, BEGIN AREA DATA
@! I,   ISW,    PDES,     PTOL,    'ARNAME'
   1,     1,    0.000,  999.990,'AREA1       '
   2,     2,    0.000,   10.000,'AREA2       '
0 / END OF AREA DATA, BEGIN TWO-TERMINAL DC DATA
@!  'NAME',   MDC,    RDC,     SETVL,    VSCHD,    VCMOD,    RCOMP,   DELTI,METER   DCVMIN,CCCITMX,CCCACC
@! IPR,NBR,  ANMXR,  ANMNR,   RCR,    XCR,   EBASR,  TRR,    TAPR,   TMXR,   TMNR,   STPR,    ICR,NDR,   IFR,   ITR,'IDR', XCAPR
@! IPI,NBI,  ANMXI,  ANMNI,   RCI,    XCI,   EBASI,  TRI,    TAPI,   TMXI,   TMNI,   STPI,    ICI,NDI,   IFI,   ITI,'IDI', XCAPI
0 / END OF TWO-TERMINAL DC DATA, BEGIN VSC DC LINE DATA
@!  'NAME',   MDC,  RDC,   O1,  F1,    O2,  F2,    O3,  F3,    O4,  F4
@!IBUS,TYPE,MODE,  DCSET,  ACSET,  ALOSS,  BLOSS,MINLOSS,  SMAX,   IMAX,   PWF,     MAXQ,   MINQ, VSREG,NREG, RMPCT
0 / END OF VSC DC LINE DATA, BEGIN IMPEDANCE CORRECTION DATA
@!I,  T1,   Re(F1), Im(F1),   T2,   Re(F2), Im(F2),   T3,   Re(F3), Im(F3),   T4,   Re(F4), Im(F4),   T5,   Re(F5), Im(F5),   T6,   Re(F6), Im(F6)
@!    T7,   Re(F7), Im(F7),   T8,   Re(F8), Im(F8),   T9,   Re(F9), Im(F9),   T10, Re(F10),Im(F10),   T11, Re(F11),Im(F11),   T12, Re(F12),Im(F12)
@!      ...
0 / END OF IMPEDANCE CORRECTION DATA, BEGIN MULTI-TERMINAL DC DATA
@!  'NAME',    NCONV,NDCBS,NDCLN,  MDC, VCONV,   VCMOD, VCONVN
@!  IB, N,  ANGMX,  ANGMN,   RC,     XC,     EBAS,   TR,    TAP,    TPMX,   TPMN,   TSTP,   SETVL,   DCPF,  MARG,CNVCOD
@!IDC, IB,AREA,ZONE,   'DCNAME',  IDC2, RGRND,OWNER
@!IDC,JDC,'DCCKT',MET,  RDC,      LDC
0 / END OF MULTI-TERMINAL DC DATA, BEGIN MULTI-SECTION LINE DATA
@!   I,     J,'ID',MET,DUM1,  DUM2,  DUM3,  DUM4,  DUM5,  DUM6,  DUM7,  DUM8,  DUM9
0 / END OF MULTI-SECTION LINE DATA, BEGIN ZONE DATA
@! I,   'ZONAME'
   1,'ZONE1       '
   2,'ZONE2       '
0 / END OF ZONE DATA, BEGIN INTER-AREA TRANSFER DATA
@!ARFROM,ARTO,'TRID',PTRAN
0 / END OF INTER-AREA TRANSFER DATA, BEGIN OWNER DATA
@! I,   'OWNAME'
   1,'OWNER1      '
   2,'OWNER2      '
0 / END OF OWNER DATA, BEGIN FACTS DEVICE DATA
@!  'NAME',         I,     J,MODE,PDES,   QDES,  VSET,   SHMX,   TRMX,   VTMN,   VTMX,   VSMX,    IMX,   LINX,   RMPCT,OWNER,  SET1,    SET2,VSREF, FCREG,NREG,   'MNAME'
0 / END OF FACTS DEVICE DATA, BEGIN SWITCHED SHUNT DATA
@!   I,'ID',MODSW,ADJM,ST, VSWHI,  VSWLO, SWREG,NREG, RMPCT,   'RMIDNT',     BINIT,               'N A M E'                  ,S1,N1,    B1, S2,N2,    B2, S3,N3,    B3, S4,N4,    B4, S5,N5,    B5, S6,N6,    B6, S7,N7,    B7, S8,N8,    B8
     9,'1 ',   1,  0,  1,1.02500,0.96000,     9,   0, 100.0,'            ',   5.00,'                                        ', 1, 3,   5.00, 1, 1,   4.00
    14,'1 ',   1,  0,  1,1.02500,0.96000,    14,   0, 100.0,'            ',  10.00,'                                        ', 1, 3,   5.00
0 / END OF SWITCHED SHUNT DATA, BEGIN GNE DATA
@!  'NAME',        'MODEL',     NTERM,BUS1...BUSNTERM,NREAL,NINTG,NCHAR
@!ST,OWNER,NMETR
@! REAL1...REAL(MIN(10,NREAL))
@! INTG1...INTG(MIN(10,NINTG))
@! CHAR1...CHAR(MIN(10,NCHAR))
0 / END OF GNE DATA, BEGIN INDUCTION MACHINE DATA
@!   I,'ID',ST,SC,DC,AREA,ZONE,OWNER,                'N A M E'                 ,TC,BC,  MBASE,RATEKV,PC,  PSET,     H,      A,      B,      D,      E,     RA,        XA,        XM,        R1,        X1,        R2,        X2,        X3,       E1,    SE1,   E2,    SE2,   IA1,   IA2, XAMULT
0 / END OF INDUCTION MACHINE DATA, BEGIN LOAD TYPE DATA
@! 'NAME', 'DESCRIPTION'
0 / END OF LOAD TYPE DATA, BEGIN INTERFACE DATA
@! '               NAME                  ',   I,TYPE,RATMAX1, RATMAX2, RATMAX3, RATMAX4, RATMAX5, RATMAX6 ,RATMAX7, RATMAX8, RATMAX9, RATMAX10,RATMAX11,RATMAX12,RATMIN1, RATMIN2, RATMIN3, RATMIN4, RATMIN5, RATMIN6 ,RATMIN7, RATMIN8, RATMIN9, RATMIN10,RATMIN11,RATMIN12
0 / END OF INTERFACE DATA, BEGIN INTERFACE ELEMENT DATA
@!                        'NAME'           TYPE,  IBUS,   JBUS,   KBUS, 'DEVNAMEID',DIRECTION, METER, WF
0 / END OF INTERFACE ELEMENT DATA, BEGIN SUBSTATION DATA
0 / END OF SUBSTATION DATA
Q
